IEEETestCases/37Bus/ieee37_VLN.Txt

SYMMETRICAL COMPONENT VOLTAGES BY BUS (for 3-phase buses)

Bus        Mag:   V1 (kV)    p.u.     V2 (kV)   %V2/V1    V0 (kV)    %V0/V1

sourcebus     132.8     0.9999   0.002988    0.00225 8.638E-009 6.506E-009
799           2.595     0.9364     0.0412      1.588   0.08323     3.207
709           2.576     0.9294    0.06106      2.371 0.0002124  0.008245
775          0.2576     0.9294   0.006106      2.371 1.783E-009 6.924E-007
701           2.625     0.9472    0.04882       1.86  0.000615   0.02343
702           2.606     0.9404    0.05266      2.021 0.0004609   0.01769
705           2.603     0.9393    0.05266      2.023 0.0004422   0.01699
713           2.601     0.9387    0.05251      2.018 0.0003955    0.0152
703           2.591     0.9348    0.05672      2.189 0.0003729   0.01439
727           2.588     0.9339    0.05726      2.213 0.0003488   0.01348
730           2.579     0.9307    0.06022      2.335 0.0002465  0.009555
704           2.596     0.9366    0.05128      1.976 0.0003048   0.01174
714           2.595     0.9365    0.05126      1.975 0.0002989   0.01152
720           2.589     0.9343    0.04995      1.929 0.0002388  0.009224
742           2.602     0.9389     0.0517      1.987 0.0004276   0.01643
712           2.602      0.939    0.05338      2.051 0.0004422   0.01699
706           2.588      0.934    0.04949      1.912 0.0002324  0.008979
725           2.588     0.9338    0.04903      1.895 0.0002301  0.008892
707           2.581     0.9314    0.04451      1.725 0.0002267  0.008783
724            2.58     0.9309    0.04345      1.684 0.0002308  0.008947
722            2.58     0.9311    0.04399      1.705 0.0002289   0.00887
708           2.571     0.9277    0.06289      2.446 0.0001883  0.007325
733           2.566      0.926    0.06447      2.512 0.0001904   0.00742
732            2.57     0.9274     0.0633      2.463 0.0001883  0.007326
731           2.575     0.9291    0.06019      2.338  0.000186  0.007224
710           2.557     0.9226    0.06715      2.626 0.0002274  0.008893
735           2.556     0.9224    0.06749       2.64 0.0002274  0.008895
736           2.555     0.9218    0.06511      2.549 0.0002203  0.008624
711            2.55       0.92    0.07164       2.81 0.0003413   0.01339
741           2.549     0.9198    0.07197      2.823 0.0003413   0.01339
740           2.549     0.9197    0.07211      2.829 0.0003413   0.01339
718           2.594     0.9359    0.05149      1.985 0.0002709   0.01045
744           2.587     0.9334    0.05733      2.216 0.0003248   0.01256
734           2.559     0.9234    0.06711      2.623 0.0002317  0.009056
737           2.553     0.9213    0.06942      2.719 0.0003144   0.01231
738           2.551     0.9204    0.07064      2.769 0.0003413   0.01338
728           2.586      0.933    0.05734      2.218 0.0003144   0.01216
729           2.586     0.9332    0.05746      2.222 0.0003184   0.01231
799r          2.661       0.96    0.04052      1.523 0.0007752   0.02914
